
  EPA STORM WATER MANAGEMENT MODEL - VERSION 5.2 (Build 5.2.4)
  PYSWMM TOOLKIT API - VERSION v1.0 (2023-11-27)
  ------------------------------------------------------------

  Example 1 
  
  ****************
  Analysis Options
  ****************
  Flow Units ............... CFS
  Process Models:
    Rainfall/Runoff ........ YES
    RDII ................... NO
    Snowmelt ............... NO
    Groundwater ............ NO
    Flow Routing ........... YES
    Ponding Allowed ........ NO
    Water Quality .......... YES
  Infiltration Method ...... HORTON
  Flow Routing Method ...... KINWAVE
  Starting Date ............ 01/01/1998 00:00:00
  Ending Date .............. 01/02/1998 12:00:00
  Antecedent Dry Days ...... 5.0
  Report Time Step ......... 01:00:00
  Wet Time Step ............ 00:15:00
  Dry Time Step ............ 01:00:00
  Routing Time Step ........ 60.00 sec
  
  
  **************************        Volume         Depth
  Runoff Quantity Continuity     acre-feet        inches
  **************************     ---------       -------
  Total Precipitation ......        15.679         2.650
  Evaporation Loss .........         0.000         0.000
  Infiltration Loss ........         2.662         0.450
  Surface Runoff ...........        12.911         2.182
  Final Storage ............         0.187         0.032
  Continuity Error (%) .....        -0.518
  
  
  **************************           TSS          Lead
  Runoff Quality Continuity            lbs           lbs
  **************************    ----------    ----------
  Initial Buildup ..........      3433.036         0.000
  Surface Buildup ..........       340.122         0.171
  Wet Deposition ...........         0.000         0.000
  Sweeping Removal .........         0.000         0.000
  Infiltration Loss ........         0.000         0.000
  BMP Removal ..............         0.000         0.000
  Surface Runoff ...........       852.765         0.171
  Remaining Buildup ........      2920.392         0.000
  Continuity Error (%) .....         0.000         0.000
  
  
  **************************        Volume        Volume
  Flow Routing Continuity        acre-feet      10^6 gal
  **************************     ---------     ---------
  Dry Weather Inflow .......         0.000         0.000
  Wet Weather Inflow .......        12.911         4.207
  Groundwater Inflow .......         0.000         0.000
  RDII Inflow ..............         0.000         0.000
  External Inflow ..........         0.000         0.000
  External Outflow .........        11.182         3.644
  Flooding Loss ............         1.717         0.559
  Evaporation Loss .........         0.000         0.000
  Exfiltration Loss ........         0.000         0.000
  Initial Stored Volume ....         0.000         0.000
  Final Stored Volume ......         0.001         0.000
  Continuity Error (%) .....         0.093
  
  
  **************************           TSS          Lead
  Quality Routing Continuity           lbs           lbs
  **************************    ----------    ----------
  Dry Weather Inflow .......         0.000         0.000
  Wet Weather Inflow .......       852.765         0.171
  Groundwater Inflow .......         0.000         0.000
  RDII Inflow ..............         0.000         0.000
  External Inflow ..........         0.000         0.000
  External Outflow .........       765.949         0.153
  Flooding Loss ............        88.596         0.018
  Exfiltration Loss ........         0.000         0.000
  Mass Reacted .............         0.000         0.000
  Initial Stored Mass ......         0.000         0.000
  Final Stored Mass ........         0.000         0.000
  Continuity Error (%) .....        -0.209        -0.209
  
  
  ********************************
  Highest Flow Instability Indexes
  ********************************
  Link 15 (1)
  Link 7 (1)
  
  
  *************************
  Routing Time Step Summary
  *************************
  Minimum Time Step           :    60.00 sec
  Average Time Step           :    60.00 sec
  Maximum Time Step           :    60.00 sec
  % of Time in Steady State   :     0.00
  Average Iterations per Step :     1.57
  % of Steps Not Converging   :     0.00
  
  
  ***************************
  Subcatchment Runoff Summary
  ***************************
  
  ------------------------------------------------------------------------------------------------------------------------------
                            Total      Total      Total      Total     Imperv       Perv      Total       Total     Peak  Runoff
                           Precip      Runon       Evap      Infil     Runoff     Runoff     Runoff      Runoff   Runoff   Coeff
  Subcatchment                 in         in         in         in         in         in         in    10^6 gal      CFS
  ------------------------------------------------------------------------------------------------------------------------------
  1                          2.65       0.00       0.00       0.43       2.10       0.10       2.21        0.60     6.96   0.832
  2                          2.65       0.00       0.00       0.45       2.10       0.08       2.18        0.59     6.86   0.822
  3                          2.65       0.00       0.00       0.43       2.11       0.10       2.20        0.30     3.54   0.832
  4                          2.65       0.00       0.00       0.43       2.11       0.10       2.20        0.30     3.54   0.832
  5                          2.65       0.00       0.00       0.47       2.10       0.06       2.16        0.88    10.12   0.815
  6                          2.65       0.00       0.00       0.46       2.10       0.07       2.17        0.71     8.17   0.819
  7                          2.65       0.00       0.00       0.43       2.11       0.10       2.21        0.24     2.86   0.834
  8                          2.65       0.00       0.00       0.45       2.10       0.08       2.18        0.59     6.86   0.822
  
  
  ****************************
  Subcatchment Washoff Summary
  ****************************
  
  ------------------------------------------------
                                 TSS          Lead
  Subcatchment                   lbs           lbs
  ------------------------------------------------
  1                           72.328         0.014
  2                          123.019         0.025
  3                           36.188         0.007
  4                           61.255         0.012
  5                          106.364         0.021
  6                          210.169         0.042
  7                           68.894         0.014
  8                          174.548         0.035
  ------------------------------------------------
  System                     852.765         0.171
  
  
  ******************
  Node Depth Summary
  ******************
  
  ---------------------------------------------------------------------------------
                                 Average  Maximum  Maximum  Time of Max    Reported
                                   Depth    Depth      HGL   Occurrence   Max Depth
  Node                 Type         Feet     Feet     Feet  days hr:min        Feet
  ---------------------------------------------------------------------------------
  9                    JUNCTION     0.11     0.71  1000.71     0  04:01        0.71
  10                   JUNCTION     0.41     3.00   998.00     0  02:06        3.00
  13                   JUNCTION     0.07     0.49   995.49     0  04:01        0.49
  14                   JUNCTION     0.08     0.56   990.56     0  04:01        0.56
  15                   JUNCTION     0.25     3.00   990.00     0  03:08        3.00
  16                   JUNCTION     0.23     1.50   986.50     0  03:13        1.50
  17                   JUNCTION     0.25     1.48   981.48     0  04:01        1.48
  19                   JUNCTION     0.06     0.43  1010.43     0  04:01        0.43
  20                   JUNCTION     0.06     0.43  1005.43     0  04:01        0.43
  21                   JUNCTION     1.19     2.00   992.00     0  02:09        2.00
  22                   JUNCTION     1.14     1.69   988.69     0  04:01        1.69
  23                   JUNCTION     0.20     3.00   993.00     0  03:07        3.00
  24                   JUNCTION     0.25     1.48   985.48     0  04:01        1.48
  18                   OUTFALL      0.23     1.36   976.36     0  04:01        1.35
  
  
  *******************
  Node Inflow Summary
  *******************
  
  -------------------------------------------------------------------------------------------------
                                  Maximum  Maximum                  Lateral       Total        Flow
                                  Lateral    Total  Time of Max      Inflow      Inflow     Balance
                                   Inflow   Inflow   Occurrence      Volume      Volume       Error
  Node                 Type           CFS      CFS  days hr:min    10^6 gal    10^6 gal     Percent
  -------------------------------------------------------------------------------------------------
  9                    JUNCTION      6.96     6.96     0  04:01       0.599       0.599       0.000
  10                   JUNCTION      6.86    13.81     0  04:01       0.591        1.19      -0.000
  13                   JUNCTION      3.54     3.54     0  04:01       0.299       0.299       0.000
  14                   JUNCTION      0.00     3.54     0  04:01           0       0.299       0.000
  15                   JUNCTION     10.12    13.65     0  04:01        0.88        1.18      -0.000
  16                   JUNCTION      0.00    20.68     0  04:01           0         2.4       0.000
  17                   JUNCTION      0.00    26.35     0  04:01           0        3.05       0.000
  19                   JUNCTION      2.86     2.86     0  04:01        0.24        0.24       0.000
  20                   JUNCTION      0.00     2.86     0  04:01           0        0.24       0.000
  21                   JUNCTION      0.00     7.49     0  04:01           0        1.01       0.000
  22                   JUNCTION      3.54    11.03     0  04:01       0.299        1.31       0.000
  23                   JUNCTION      8.17     8.17     0  04:01       0.707       0.707       0.000
  24                   JUNCTION      0.00    26.35     0  04:01           0        3.05       0.000
  18                   OUTFALL       6.86    33.21     0  04:01       0.591        3.64       0.000
  
  
  *********************
  Node Flooding Summary
  *********************
  
  Flooding refers to all water that overflows a node, whether it ponds or not.
  --------------------------------------------------------------------------
                                                             Total   Maximum
                                 Maximum   Time of Max       Flood    Ponded
                        Hours       Rate    Occurrence      Volume    Volume
  Node                 Flooded       CFS   days hr:min    10^6 gal  1000 ft³
  --------------------------------------------------------------------------
  10                      3.88      9.18      0  04:01       0.419     0.000
  15                      1.10      4.00      0  04:01       0.086     0.000
  23                      1.12      2.50      0  04:01       0.055     0.000
  
  
  ***********************
  Outfall Loading Summary
  ***********************
  
  ---------------------------------------------------------------------------------------
                         Flow       Avg       Max       Total         Total         Total
                         Freq      Flow      Flow      Volume           TSS          Lead
  Outfall Node           Pcnt       CFS       CFS    10^6 gal           lbs           lbs
  ---------------------------------------------------------------------------------------
  18                    97.18      3.87     33.21       3.643       765.949         0.153
  ---------------------------------------------------------------------------------------
  System                97.18      3.87     33.21       3.643       765.949         0.153
  
  
  ********************
  Link Flow Summary
  ********************
  
  -----------------------------------------------------------------------------
                                 Maximum  Time of Max   Maximum    Max/    Max/
                                  |Flow|   Occurrence   |Veloc|    Full    Full
  Link                 Type          CFS  days hr:min    ft/sec    Flow   Depth
  -----------------------------------------------------------------------------
  1                    CONDUIT      6.95     0  04:01      8.45    0.46    0.47
  4                    CONDUIT      2.86     0  04:01      8.75    0.39    0.43
  5                    CONDUIT      2.86     0  04:01     13.05    0.23    0.32
  6                    CONDUIT      4.95     0  05:11      7.01    1.07    1.00
  7                    CONDUIT      7.49     0  04:01      7.83    0.25    0.34
  8                    CONDUIT     11.03     0  04:01      7.49    0.46    0.48
  10                   CONDUIT     26.35     0  04:01     11.64    0.80    0.68
  11                   CONDUIT      3.54     0  04:01      7.05    0.23    0.33
  12                   CONDUIT      3.53     0  04:01      5.86    0.30    0.37
  13                   CONDUIT     10.22     0  04:12      6.43    1.06    1.00
  14                   CONDUIT      6.02     0  04:12      8.47    1.06    1.00
  15                   CONDUIT     20.68     0  04:01     10.13    0.70    0.62
  16                   CONDUIT     26.35     0  04:01     10.59    0.90    0.74
  
  
  *************************
  Conduit Surcharge Summary
  *************************
  
  ----------------------------------------------------------------------------
                                                           Hours        Hours 
                         --------- Hours Full --------   Above Full   Capacity
  Conduit                Both Ends  Upstream  Dnstream   Normal Flow   Limited
  ----------------------------------------------------------------------------
  6                           3.88      3.88      3.88      3.92         3.88
  13                          1.10      1.10      1.10      1.10         1.10
  14                          1.12      1.12      1.12      1.12         1.12
  
  
  ***************************
  Link Pollutant Load Summary
  ***************************
  
  ------------------------------------------------
                                 TSS          Lead
  Link                           lbs           lbs
  ------------------------------------------------
  1                           72.307         0.014
  4                           68.876         0.014
  5                           68.869         0.014
  6                          130.462         0.026
  7                          199.420         0.040
  8                          260.776         0.052
  10                         591.401         0.118
  11                          36.174         0.007
  12                          36.163         0.007
  13                         132.196         0.026
  14                         197.256         0.039
  15                         393.305         0.079
  16                         590.920         0.118
  

  Analysis begun on:  Wed Sep 17 21:13:16 2025
  Analysis ended on:  Wed Sep 17 21:13:16 2025
  Total elapsed time: < 1 sec